Measured thermophysical data. The NBS tables of chemical thermodynamic properties
Source: J. Phys. Chem. Ref. Data, 1982
Compound 1: sulfate ion, O4S
Compound 2: sulfur cation, S
Compound 3: oxygen, O2
Compound 4: sulfur, S
Compound 5: water, H2O
Compound 6: electron, e
Compound 7: hydrohen ion, H
Compound 8: hydrohen, H2

System: sulfate ion + water; phases: Liquid
Fixed: Temperature, K = 298.15
Fixed: Pressure, kPa = 100
Property: Standard state molar entropy, J/K/mol of sulfate ion (Liquid); method: Other
Molality, mol/kg of sulfate ion	Standard state molar entropy, J/K/mol of sulfate ion	uncertainty
1	20.1	

System: sulfate ion + water; phases: Liquid
Fixed: Temperature, K = 298.15
Fixed: Pressure, kPa = 100
Property: Standard state molar heat capacity, J/K/mol of sulfate ion (Liquid); method: Other
Molality, mol/kg of sulfate ion	Standard state molar heat capacity, J/K/mol of sulfate ion	uncertainty
1	-293	

Reaction: 1 sulfur cation + 1 electron + -1 sulfur
Property: Molar enthalpy of reaction, kJ/mol
1276.133

Reaction: 1 sulfate ion + -2 hydrohen ion + -1 sulfur + -2 oxygen + -1 hydrohen
Property: Molar enthalpy of reaction, kJ/mol
-909.27

Reaction: 1 sulfate ion + -2 hydrohen ion + -1 sulfur + -2 oxygen + -1 hydrohen
Property: Molar Gibbs energy of reaction, kJ/mol
-744.53
