Measured thermophysical data. Thermodynamics of BaNd2Fe2O7(s) and BaNdFeO4(s) in the system Ba Nd Fe O
Source: Thermochim. Acta, 2006
Compound 1: calcium oxide, CaO
Compound 2: BaNd2Fe2O7, BaFe2Nd2O7, purity 98%
Compound 3: BaNdFeO4, BaFeNdO4, purity 98%
Compound 4: barium fluoride (BaF2), BaF2
Compound 5: calcium fluoride, CaF2
Compound 6: NdFeO3, FeNdO3

Reaction: -1 calcium oxide + -1 barium fluoride (BaF2) + 1 calcium fluoride + -2 NdFeO3 + 1 BaNd2Fe2O7
Property: Potential difference of an electrochemical cell, V
861	0.0213
995	0.0725

Reaction: -1 calcium oxide + -1 barium fluoride (BaF2) + 1 calcium fluoride + -2 NdFeO3 + 1 BaNd2Fe2O7
Property: Molar Gibbs energy of reaction, kJ/mol
861	4.17
995	14.03
