Measured thermophysical data. New Physico-Chemical Properties of Extremely Diluted  Solutions. Electromotive Force Measurements  of Galvanic Cells Sensible to the Activity of NaCl at 25 deg C
Source: J. Solution Chem., 2008, 10.1007/s10953-008-9299-6
Compound 1: water, H2O
Compound 2: sodium chloride, ClNa

System: sodium chloride + water; phases: Liquid
Fixed: Temperature, K = 298.15
Fixed: Pressure, kPa = 101.325
Property: Mean ionic activity, (mol/dm3)^n of sodium chloride (Liquid); method: Potential difference of an electrochemical cell
Amount concentration (molarity), mol/dm3 of sodium chloride	Mean ionic activity, (mol/dm3)^n of sodium chloride	uncertainty
.9899	.6464	

System: sodium chloride + water; phases: Liquid
Fixed: Temperature, K = 298.15
Fixed: Pressure, kPa = 101.325
Property: Mean ionic activity coefficient of sodium chloride (Liquid); method: Potential difference of an electrochemical cell
Amount concentration (molarity), mol/dm3 of sodium chloride	Mean ionic activity coefficient of sodium chloride	uncertainty
.9899	.6530	
