Measured thermophysical data. Transference Numbers of Lanthanum Chloride at 25 C by the Moving Boundary Method
Source: J. Am. Chem. Soc., 1938
Compound 1: water, H2O
Compound 2: lanthanum chloride, Cl3La
Compound 3: lanthanum ion, La
Compound 4: chloride ion, Cl

System: water + lanthanum chloride; phases: Liquid
Fixed: Temperature, K = 298.15
Fixed: Pressure, kPa = 101.325
Property: Transport number of lanthanum ion (Liquid); method: moving boundary
Amount concentration (molarity), mol/dm3 of lanthanum chloride	Transport number of lanthanum ion	uncertainty
0.0025	0.4641	
