Measured thermophysical data. The thermodynamic properties of 4-methylphenanthrene
Source: J. Chem. Thermodyn., 1989
Compound 1: 4-methylphenanthrene, C15H12, purity 98%
Compound 2: carbon, C
Compound 3: hydrogen, H2

Reaction: 1 4-methylphenanthrene + -15 carbon + -6 hydrogen
Property: Molar enthalpy of reaction, kJ/mol
102.42
