Measured thermophysical data. Dissociation Constants and Thermodynamic Properties of Amines and Alkanolamines from (293 to 353) K
Source: J. Chem. Eng. Data, 2009, 10.1021/je800897v
Compound 1: piperazine, C4H10N2
Compound 2: piperazonium, C4H11N2
Compound 3: piperazinedionium, C4H12N2
Compound 4: water, H2O, purity 99.9%
Compound 5: hydroxonium ion, H3O

Reaction: -1 piperazinedionium + 2 hydroxonium ion + 1 piperazine + -2 water
Property: Thermodynamic equilibrium constant
293.15	3.11E-06
298.15	3.92E-06
303.15	4.83E-06
308.15	5.96E-06
313.15	7.28E-06
318.15	8.90E-06
323.15	1.09E-05

Reaction: -1 piperazonium + 1 hydroxonium ion + 1 piperazine + -1 water
Property: Natural logarithm of thermodynamic equilibrium constant
293.15	-22.66
298.15	-22.37
303.15	-22.08
308.15	-21.80
313.15	-21.53
318.15	-21.27
323.15	-21.01
